24 25
###C#####################
###X############....TNN##
#....###########..#######
#..T.############.#######
###.#############.#######
###.#############.#######
###.#############.#######
###.#############.#######
##..#############.#######
##....###########.#######
###.#############.#######
###.#############.#######
###.#############.#######
###.#############.#######
###.#############.#######
###.#############.#######
###.#############.#######
###.#############.#######
###.#############.#######
###.#############.#######
##..#############.#######
##................#######
################..#######
#########################
