40 40
.......#..##..#....#.......#....#......#
.....#..#..#.......#....#............#..
.#.......#....#......................#..
...........#..................#..#......
........................#.........#.#...
.#.......#..#..#...........#............
........#......#.....#..................
......#......#..#...................#...
#...........#...#.....#.......#.#.......
..#....#...#..#.#....#..#...#.....#.....
...#..#..................#.#............
.........#....#............##...#..#....
...#.##.....###..#..........#....#......
#..#..#.....#..............##...#.......
......#...#...#...#.....#....#...#......
..#...........#.......#...###...........
.#.........#....#..............#.....#..
#...#....#...........#.....#..#.###..#..
..##........................#.......#..#
..###.......#.....#.#......##..#........
#.#..........................#..........
.........#.................#...#.##.....
....#........#...#.............#.......#
.......#...#...#................#...#...
.##.......#.............#....#.#....##..
......##.......#........................
.........#............................#.
.....#..#...#............#........#.....
.......#...............#................
...##.........................#.........
........#.#.........#.....#.............
.........#.......................#......
.......#.#.........#.#...#......#...###.
....#..........#......#......#.......##.
..##.........#......................##..
...#...............#....##..............
#.............#.....#..............##...
..#...#.#......#..........#...#...#.#...
.......#.......S..#...#.............#...
.#..............##...#.#..#..........#..
10
RIGHT
UP
LEFT
RIGHT
LEFT
RIGHT
UP
DOWN
UP
DOWN